*HEADING
Example in PAGE 28 in CCX 2.6.1--29-12-2013
**Note:Input deck modified
***
*INCLUDE,INPUT=Nall.inp
*INCLUDE,INPUT=Eall.inp
*INCLUDE,INPUT=Nbou.inp
*INCLUDE,INPUT=Nload.inp
***
*MATERIAL,NAME=EL
*ELASTIC
210000.0,0.3
*DENSITY
7.8E-9
***
*SOLID SECTION,ELSET=Eall,MATERIAL=EL
*BOUNDARY
Nbou,1,3
*STEP
*STATIC
*CLOAD
Nload,3,-48.155
*END STEP
*STEP,PERTURBATION
*FREQUENCY
10
*NODE FILE
U
*EL FILE
S
*END STEP

